YAXQIX.mol


545552  0  0  0                 1 V2000
    8.4528   -1.6895   -5.9169 O   0  0  0  0  0
   11.3965   -5.0739   -3.8584 O   0  0  0  0  0
   12.4407   -1.4344   -0.8271 O   0  0  0  0  0
   11.1997   -3.6617    3.3752 O   0  0  0  0  0
   10.1909   -3.9010    2.5935 O   0  0  0  0  0
    7.6724   -0.3231    2.9000 O   0  0  0  0  0
    4.4551   -3.7585    2.3180 O   0  0  0  0  0
    4.1060   -1.0739   -1.5381 O   0  0  0  0  0
    4.8013   -4.6222   -4.7250 O   0  0  0  0  0
    5.8093   -2.7271   -5.2108 N   0  0  0  0  0
    9.1126   -3.7289   -5.2354 N   0  0  0  0  0
   11.6578   -3.0313   -2.9992 N   0  0  0  0  0
   12.0502   -3.1949    0.4664 N   0  0  0  0  0
   10.0292   -1.7373    2.9734 N   0  0  0  0  0
    6.6071   -2.1643    3.5269 N   0  0  0  0  0
    4.1205   -1.9880    0.9959 N   0  0  0  0  0
    3.7563   -3.1073   -2.4164 N   0  0  0  0  0
    6.7928   -3.3625   -6.0960 C   0  0  0  0  0
    6.4930   -3.0495   -7.5789 C   0  0  0  0  0
    7.4403   -3.7960   -8.5021 C   0  0  0  0  0
    7.1733   -3.6258   -9.9686 C   0  0  0  0  0
    6.8288   -2.4096  -10.5755 C   0  0  0  0  0
    6.6345   -2.3053  -11.8853 C   0  0  0  0  0
    6.7781   -3.3779  -12.6844 C   0  0  0  0  0
    6.9656   -4.6278  -12.1643 C   0  0  0  0  0
    7.2440   -4.7167  -10.8260 C   0  0  0  0  0
    8.1675   -2.8828   -5.7209 C   0  0  0  0  0
    8.7655   -5.1812   -5.0234 C   0  0  0  0  0
   10.4721   -3.2400   -5.0606 C   0  0  0  0  0
   11.2537   -3.5019   -6.3268 C   0  0  0  0  0
   11.2146   -3.8400   -3.9256 C   0  0  0  0  0
   12.5552   -3.5188   -1.9239 C   0  0  0  0  0
   14.0288   -3.4483   -2.3561 C   0  0  0  0  0
   14.9584   -4.0765   -1.3707 C   0  0  0  0  0
   15.0897   -5.3984   -1.3144 C   0  0  0  0  0
   15.9345   -6.0341   -0.3640 C   0  0  0  0  0
   16.6714   -5.1876    0.4718 C   0  0  0  0  0
   16.4821   -3.8927    0.4739 C   0  0  0  0  0
   15.6709   -3.3425   -0.4729 C   0  0  0  0  0
   12.3395   -2.6566   -0.6925 C   0  0  0  0  0
   12.0944   -4.6573    0.6972 C   0  0  0  0  0
   11.9976   -2.3076    1.6504 C   0  0  0  0  0
   13.3372   -2.3297    2.3727 C   0  0  0  0  0
   10.8315   -2.6308    2.5492 C   0  0  0  0  0
    9.0168   -1.9800    3.9675 C   0  0  0  0  0
    9.2929   -1.2862    5.2857 C   0  0  0  0  0
   10.3706   -1.9751    6.0875 C   0  0  0  0  0
   10.5485   -1.4761    7.5340 C   0  0  0  0  0
   10.0906   -0.2302    8.0225 C   0  0  0  0  0
   10.2975    0.2641    9.2786 C   0  0  0  0  0
   10.9038   -0.3917    9.9449 C   0  0  0  0  0
   11.3824   -1.7087    9.6393 C   0  0  0  0  0
   11.1206   -2.2685    8.3275 C   0  0  0  0  0
    7.6704   -1.4461    3.4370 C   0  0  0  0  0
    6.5792   -3.4203    4.2965 C   0  0  0  0  0
    5.3040   -1.5970    3.0881 C   0  0  0  0  0
    4.3817   -1.3419    4.2705 C   0  0  0  0  0
    4.6236   -2.5821    2.0979 C   0  0  0  0  0
    3.3937   -2.7135    0.0014 C   0  0  0  0  0
    1.8922   -2.5196    0.1366 C   0  0  0  0  0
    1.2964   -3.1200    1.3656 C   0  0  0  0  0
    1.0897   -4.4919    1.4166 C   0  0  0  0  0
    0.5064   -5.0729    2.5372 C   0  0  0  0  0
    0.1011   -4.3220    3.5902 C   0  0  0  0  0
    0.2968   -2.9602    3.5583 C   0  0  0  0  0
    0.8902   -2.3538    2.3890 C   0  0  0  0  0
    3.7908   -2.2567   -1.3927 C   0  0  0  0  0
    3.3383   -4.5310   -2.2241 C   0  0  0  0  0
    3.8914   -2.6005   -3.7912 C   0  0  0  0  0
    2.5100   -2.5288   -4.4894 C   0  0  0  0  0
    4.8958   -3.4123   -4.5700 C   0  0  0  0  0
    5.8328   -1.8734   -5.1109 H   0  0  0  0  0
   11.4254   -2.2037   -3.0119 H   0  0  0  0  0
   10.0939   -0.9458    2.6467 H   0  0  0  0  0
    4.2392   -1.1429    0.8873 H   0  0  0  0  0
    6.7537   -4.3326   -5.9659 H   0  0  0  0  0
    5.5789   -3.3009   -7.7821 H   0  0  0  0  0
    6.5814   -2.0952   -7.7300 H   0  0  0  0  0
    8.3454   -3.4998   -8.3203 H   0  0  0  0  0
    7.3946   -4.7398   -8.2895 H   0  0  0  0  0
    6.7316   -1.6515  -10.0451 H   0  0  0  0  0
    6.3974   -1.4853  -12.2531 H   0  0  0  0  0
    6.7455   -3.2654  -13.6077 H   0  0  0  0  0
    6.9059   -5.3890  -12.6958 H   0  0  0  0  0
    7.4966   -5.5407  -10.4764 H   0  0  0  0  0
    9.5295   -5.6477   -4.6785 H   0  0  0  0  0
    8.5024   -5.5734   -5.8618 H   0  0  0  0  0
    8.0385   -5.2479   -4.3990 H   0  0  0  0  0
   10.4337   -2.2700   -4.9206 H   0  0  0  0  0
   10.7843   -3.1273   -7.0758 H   0  0  0  0  0
   11.3515   -4.4480   -6.4509 H   0  0  0  0  0
   12.1198   -3.0956   -6.2579 H   0  0  0  0  0
   12.3273   -4.4467   -1.7100 H   0  0  0  0  0
   14.1304   -3.8944   -3.2113 H   0  0  0  0  0
   14.2792   -2.5191   -2.4756 H   0  0  0  0  0
   14.6124   -5.9237   -1.9165 H   0  0  0  0  0
   15.9929   -6.9610   -0.3006 H   0  0  0  0  0
   17.3083   -5.5555    1.0382 H   0  0  0  0  0
   16.8940   -3.3560    1.1115 H   0  0  0  0  0
   15.6013   -2.4158   -0.5079 H   0  0  0  0  0
   11.8461   -4.8436    1.6056 H   0  0  0  0  0
   12.9822   -4.9805    0.5347 H   0  0  0  0  0
   11.4803   -5.0925    0.1009 H   0  0  0  0  0
   11.8637   -1.3939    1.3205 H   0  0  0  0  0
   14.0366   -2.0902    1.7595 H   0  0  0  0  0
   13.5000   -3.2098    2.7158 H   0  0  0  0  0
   13.3205   -1.6998    3.0977 H   0  0  0  0  0
    8.9423   -2.9438    4.1208 H   0  0  0  0  0
    9.5615   -0.3707    5.1124 H   0  0  0  0  0
    8.4757   -1.2627    5.8086 H   0  0  0  0  0
   11.2133   -1.8668    5.6217 H   0  0  0  0  0
   10.1718   -2.9239    6.1138 H   0  0  0  0  0
    9.6133    0.2949    7.4277 H   0  0  0  0  0
    9.9490    1.0820    9.5595 H   0  0  0  0  0
   11.1264   -0.0431   10.7841 H   0  0  0  0  0
   11.8489   -2.1950   10.2788 H   0  0  0  0  0
   11.3635   -3.1411    8.0869 H   0  0  0  0  0
    5.6965   -3.8003    4.2564 H   0  0  0  0  0
    6.8086   -3.2394    5.2119 H   0  0  0  0  0
    7.2118   -4.0382    3.9219 H   0  0  0  0  0
    5.4708   -0.7473    2.6278 H   0  0  0  0  0
    4.8062   -0.7340    4.8819 H   0  0  0  0  0
    4.2023   -2.1709    4.7197 H   0  0  0  0  0
    3.5574   -0.9619    3.9583 H   0  0  0  0  0
    3.6002   -3.6673    0.0946 H   0  0  0  0  0
    1.7036   -1.5671    0.1335 H   0  0  0  0  0
    1.4594   -2.9073   -0.6405 H   0  0  0  0  0
    1.3441   -5.0249    0.7011 H   0  0  0  0  0
   -0.2679   -5.5683    2.2272 H   0  0  0  0  0
    1.1368   -5.7243    2.8800 H   0  0  0  0  0
   -0.3063   -4.7220    4.3241 H   0  0  0  0  0
    0.0474   -2.4355    4.2845 H   0  0  0  0  0
    0.9893   -1.4298    2.3469 H   0  0  0  0  0
    3.3767   -4.9925   -3.0663 H   0  0  0  0  0
    2.4410   -4.5589   -1.8851 H   0  0  0  0  0
    3.9305   -4.9582   -1.5986 H   0  0  0  0  0
    4.2359   -1.6851   -3.7343 H   0  0  0  0  0
    1.9122   -1.9986   -3.9588 H   0  0  0  0  0
    2.1553   -3.4146   -4.5829 H   0  0  0  0  0
    2.6091   -2.1295   -5.3553 H   0  0  0  0  0
   -6.1800   -3.4597    1.5059 O   0  0  0  0  0
   -7.7878   -3.1037   -3.1460 O   0  0  0  0  0
  -11.4745   -0.7527   -1.0471 O   0  0  0  0  0
  -11.1117    3.4645   -3.5439 O   0  0  0  0  0
   -9.8906    3.2228   -3.1741 O   0  0  0  0  0
   -9.6381    4.7811    0.9181 O   0  0  0  0  0
   -5.2697    5.6073   -0.7345 O   0  0  0  0  0
   -4.7092    2.4422    2.7086 O   0  0  0  0  0
   -2.3910   -0.8395    0.0479 O   0  0  0  0  0
   -3.8720   -1.6622    1.4519 N   0  0  0  0  0
   -6.0406   -3.2330   -0.7267 N   0  0  0  0  0
   -9.2678   -2.3844   -1.6386 N   0  0  0  0  0
  -10.8639    0.5080   -2.7673 N   0  0  0  0  0
  -10.9002    3.7150   -1.2808 N   0  0  0  0  0
   -8.1908    5.7568   -0.4502 N   0  0  0  0  0
   -5.2946    4.6521    1.2858 N   0  0  0  0  0
   -3.1549    1.7463    1.2510 N   0  0  0  0  0
   -4.0197   -2.9217    0.7144 C   0  0  0  0  0
   -3.3421   -4.0909    1.4640 C   0  0  0  0  0
   -3.3952   -5.3717    0.6510 C   0  0  0  0  0
   -2.6852   -6.5459    1.2576 C   0  0  0  0  0
   -2.7290   -6.8821    2.6183 C   0  0  0  0  0
   -2.1079   -7.9529    3.0990 C   0  0  0  0  0
   -1.4189   -8.7678    2.2815 C   0  0  0  0  0
   -1.2000   -8.4389    0.9727 C   0  0  0  0  0
   -1.9062   -7.3815    0.4653 C   0  0  0  0  0
   -5.4834   -3.1996    0.5120 C   0  0  0  0  0
   -5.1819   -2.9400   -1.9316 C   0  0  0  0  0
   -7.4191   -3.6811   -0.8665 C   0  0  0  0  0
   -7.4255   -5.1739   -1.1030 C   0  0  0  0  0
   -8.1810   -3.0347   -1.9618 C   0  0  0  0  0
  -10.1825   -1.8580   -2.6807 C   0  0  0  0  0
  -11.2213   -2.9129   -3.0928 C   0  0  0  0  0
  -12.0621   -2.4870   -4.2502 C   0  0  0  0  0
  -11.5840   -2.5465   -5.4895 C   0  0  0  0  0
  -12.3408   -2.1127   -6.6128 C   0  0  0  0  0
  -13.6428   -1.6749   -6.3500 C   0  0  0  0  0
  -14.0851   -1.5387   -5.1252 C   0  0  0  0  0
  -13.3185   -1.9881   -4.0921 C   0  0  0  0  0
  -10.8874   -0.6331   -2.1246 C   0  0  0  0  0
  -10.3207    0.6389   -4.1385 C   0  0  0  0  0
  -11.6923    1.6185   -2.2418 C   0  0  0  0  0
  -13.0341    1.6449   -2.9589 C   0  0  0  0  0
  -10.9659    2.9378   -2.2863 C   0  0  0  0  0
  -10.3712    5.0524   -1.3361 C   0  0  0  0  0
  -11.4251    6.1230   -1.1446 C   0  0  0  0  0
  -12.2846    6.3172   -2.3700 C   0  0  0  0  0
  -13.2216    7.5380   -2.3425 C   0  0  0  0  0
  -13.6185    8.2285   -1.1741 C   0  0  0  0  0
  -14.5015    9.2684   -1.1148 C   0  0  0  0  0
  -14.9470    9.5583   -2.0961 C   0  0  0  0  0
  -14.6060    9.0188   -3.3789 C   0  0  0  0  0
  -13.6279    7.9522   -3.4600 C   0  0  0  0  0
   -9.3330    5.2171   -0.2073 C   0  0  0  0  0
   -7.8950    6.4063   -1.7405 C   0  0  0  0  0
   -7.2384    5.9845    0.6694 C   0  0  0  0  0
   -7.0820    7.4657    0.9741 C   0  0  0  0  0
   -5.8566    5.3794    0.2978 C   0  0  0  0  0
   -3.9928    4.0741    1.1639 C   0  0  0  0  0
   -2.9362    4.8885    1.8922 C   0  0  0  0  0
   -2.6678    6.2318    1.2984 C   0  0  0  0  0
   -1.8952    6.3200    0.1490 C   0  0  0  0  0
   -1.6028    7.5606   -0.4066 C   0  0  0  0  0
   -2.0356    8.7096    0.1674 C   0  0  0  0  0
   -2.8021    8.6426    1.3068 C   0  0  0  0  0
   -3.0952    7.3555    1.8934 C   0  0  0  0  0
   -3.9728    2.6717    1.7482 C   0  0  0  0  0
   -2.2447    2.0551    0.1026 C   0  0  0  0  0
   -2.9555    0.4812    1.9764 C   0  0  0  0  0
   -1.6124    0.4973    2.7484 C   0  0  0  0  0
   -3.0809   -0.6997    1.0485 C   0  0  0  0  0
   -4.3208   -1.5517    2.1779 H   0  0  0  0  0
   -9.4557   -2.2591   -0.8100 H   0  0  0  0  0
  -11.1864    3.4255   -0.5243 H   0  0  0  0  0
   -5.7339    4.5336    2.0166 H   0  0  0  0  0
   -3.5954   -2.8237   -0.1640 H   0  0  0  0  0
   -2.4180   -3.8625    1.6474 H   0  0  0  0  0
   -3.7902   -4.2300    2.3132 H   0  0  0  0  0
   -4.3244   -5.6132    0.5160 H   0  0  0  0  0
   -3.0098   -5.1972   -0.2217 H   0  0  0  0  0
   -3.2060   -6.3388    3.2023 H   0  0  0  0  0
   -2.1500   -8.1412    4.0091 H   0  0  0  0  0
   -1.0823   -9.5696    2.6146 H   0  0  0  0  0
   -0.5960   -8.9129    0.4478 H   0  0  0  0  0
   -1.8677   -7.2172   -0.4493 H   0  0  0  0  0
   -5.7138   -3.0000   -2.7273 H   0  0  0  0  0
   -4.4644   -3.5785   -1.9758 H   0  0  0  0  0
   -4.8159   -2.0553   -1.8553 H   0  0  0  0  0
   -7.8862   -3.5021   -0.0238 H   0  0  0  0  0
   -6.9290   -5.6091   -0.4072 H   0  0  0  0  0
   -7.0223   -5.3636   -1.9515 H   0  0  0  0  0
   -8.3300   -5.4925   -1.0980 H   0  0  0  0  0
   -9.6594   -1.5990   -3.4674 H   0  0  0  0  0
  -10.7631   -3.7358   -3.3244 H   0  0  0  0  0
  -11.7994   -3.1003   -2.3367 H   0  0  0  0  0
  -10.7267   -2.8819   -5.6259 H   0  0  0  0  0
  -11.9871   -2.1175   -7.4740 H   0  0  0  0  0
  -14.2057   -1.4778   -7.0614 H   0  0  0  0  0
  -14.9104   -1.1408   -4.9626 H   0  0  0  0  0
  -13.6733   -1.9527   -3.2332 H   0  0  0  0  0
  -10.3930    1.5518   -4.4245 H   0  0  0  0  0
  -10.8175    0.0755   -4.7352 H   0  0  0  0  0
   -9.3976    0.3732   -4.1423 H   0  0  0  0  0
  -11.8738    1.4200   -1.2993 H   0  0  0  0  0
  -13.4616    0.7890   -2.8737 H   0  0  0  0  0
  -12.8956    1.8430   -3.8875 H   0  0  0  0  0
  -13.5933    2.3215   -2.5665 H   0  0  0  0  0
   -9.9306    5.1874   -2.2007 H   0  0  0  0  0
  -11.9908    5.8810   -0.3946 H   0  0  0  0  0
  -10.9890    6.9623   -0.9272 H   0  0  0  0  0
  -12.8243    5.5218   -2.4927 H   0  0  0  0  0
  -11.7019    6.3946   -3.1413 H   0  0  0  0  0
  -13.2442    7.9384   -0.3767 H   0  0  0  0  0
  -14.7078    9.7080   -0.3189 H   0  0  0  0  0
  -15.6125   10.2151   -2.0727 H   0  0  0  0  0
  -15.0061    9.3545   -4.1473 H   0  0  0  0  0
  -13.3271    7.5956   -4.2734 H   0  0  0  0  0
   -7.0013    6.7605   -1.7212 H   0  0  0  0  0
   -8.5196    7.1207   -1.8878 H   0  0  0  0  0
   -7.9707    5.7617   -2.4471 H   0  0  0  0  0
   -7.5800    5.5309    1.4691 H   0  0  0  0  0
   -7.9389    7.8381    1.2021 H   0  0  0  0  0
   -6.7359    7.9167    0.2010 H   0  0  0  0  0
   -6.4760    7.5805    1.7100 H   0  0  0  0  0
   -3.7577    4.0268    0.2134 H   0  0  0  0  0
   -3.2206    5.0089    2.8130 H   0  0  0  0  0
   -2.1091    4.3824    1.9039 H   0  0  0  0  0
   -1.5734    5.5472   -0.2537 H   0  0  0  0  0
   -0.6375    7.6216   -0.4702 H   0  0  0  0  0
   -1.9422    7.5524   -1.3144 H   0  0  0  0  0
   -1.8149    9.5337   -0.2046 H   0  0  0  0  0
   -3.1278    9.4207    1.6977 H   0  0  0  0  0
   -3.5804    7.3059    2.6855 H   0  0  0  0  0
   -1.7345    1.2728   -0.1203 H   0  0  0  0  0
   -1.6496    2.7649    0.3488 H   0  0  0  0  0
   -2.7675    2.3239   -0.6573 H   0  0  0  0  0
   -3.6720    0.4091    2.6416 H   0  0  0  0  0
   -1.5858    1.2619    3.3268 H   0  0  0  0  0
   -0.8871    0.5419    2.1229 H   0  0  0  0  0
   -1.5350   -0.3031    3.2721 H   0  0  0  0  0
   10.6807    0.8661    1.8595 O   0  0  0  0  0
   12.9084    3.3128   -1.5329 O   0  0  0  0  0
   11.5650   -0.3283   -3.9625 O   0  0  0  0  0
    8.9371    3.0332   -5.2981 O   0  0  0  0  0
    5.5313    0.1308   -4.7919 O   0  0  0  0  0
    2.5935    3.3754   -2.4815 O   0  0  0  0  0
    4.7573    0.8478    1.0446 O   0  0  0  0  0
    7.6156    4.3723    1.9911 O   0  0  0  0  0
    8.5950    2.4757    2.6122 N   0  0  0  0  0
   11.7633    2.6379    1.0390 N   0  0  0  0  0
   12.8910    1.1896   -2.0135 N   0  0  0  0  0
   11.3000    1.6026   -5.0872 N   0  0  0  0  0
    7.8131    1.2435   -5.8270 N   0  0  0  0  0
    4.5877    2.1509   -4.4816 N   0  0  0  0  0
    3.6460    1.7812   -1.2987 N   0  0  0  0  0
    5.1600    2.9720    1.5912 N   0  0  0  0  0
    9.9265    2.9613    2.6321 C   0  0  0  0  0
   10.5133    2.9993    4.0783 C   0  0  0  0  0
    9.9034    4.0947    4.9416 C   0  0  0  0  0
   10.4931    5.4163    4.6813 C   0  0  0  0  0
   11.6397    5.8927    5.3300 C   0  0  0  0  0
   12.1292    7.0933    5.0413 C   0  0  0  0  0
   11.6661    7.9175    4.1776 C   0  0  0  0  0
   10.4540    7.5161    3.5583 C   0  0  0  0  0
    9.8762    6.2868    3.7655 C   0  0  0  0  0
   10.8255    2.0452    1.7976 C   0  0  0  0  0
   12.0928    4.0615    1.0819 C   0  0  0  0  0
   12.6541    1.7594    0.2959 C   0  0  0  0  0
   14.0040    1.6949    0.9483 C   0  0  0  0  0
   12.8233    2.1621   -1.1492 C   0  0  0  0  0
   13.1128    1.3856   -3.4381 C   0  0  0  0  0
   14.3721    0.6446   -3.8731 C   0  0  0  0  0
   14.6600    0.8071   -5.3316 C   0  0  0  0  0
   14.2605   -0.1694   -6.2291 C   0  0  0  0  0
   14.3836    0.0305   -7.6557 C   0  0  0  0  0
   14.9698    1.2572   -7.9900 C   0  0  0  0  0
   15.4106    2.1847   -7.0918 C   0  0  0  0  0
   15.2158    1.9269   -5.8487 C   0  0  0  0  0
   11.9462    0.8344   -4.2028 C   0  0  0  0  0
   11.8048    2.9366   -5.4430 C   0  0  0  0  0
   10.1967    1.0246   -5.8028 C   0  0  0  0  0
   10.5206    0.8186   -7.2648 C   0  0  0  0  0
    8.9072    1.8467   -5.6321 C   0  0  0  0  0
    6.5439    1.9527   -5.9306 C   0  0  0  0  0
    6.0568    2.0385   -7.3324 C   0  0  0  0  0
    5.8270    0.9662   -7.8556 C   0  0  0  0  0
    5.5228    1.3477   -5.0205 C   0  0  0  0  0
    4.5027    3.6042   -4.7778 C   0  0  0  0  0
    3.5155    1.5169   -3.6871 C   0  0  0  0  0
    2.2571    1.3524   -4.5761 C   0  0  0  0  0
    3.2178    2.3217   -2.4667 C   0  0  0  0  0
    3.3610    2.4229   -0.0336 C   0  0  0  0  0
    2.0127    1.8942    0.5443 C   0  0  0  0  0
    1.6091    2.5745    1.7908 C   0  0  0  0  0
    0.9519    3.7782    1.7849 C   0  0  0  0  0
    0.5793    4.4894    2.8800 C   0  0  0  0  0
    0.8498    3.9313    4.0715 C   0  0  0  0  0
    1.5074    2.6974    4.1924 C   0  0  0  0  0
    1.8578    2.0135    3.0491 C   0  0  0  0  0
    4.4952    2.0297    0.9270 C   0  0  0  0  0
    4.7614    4.3815    1.5917 C   0  0  0  0  0
    6.1962    2.5222    2.5334 C   0  0  0  0  0
    5.7291    2.7435    3.9379 C   0  0  0  0  0
    7.5269    3.2212    2.3443 C   0  0  0  0  0
    8.4689    1.6420    2.7830 H   0  0  0  0  0
   12.7991    0.3848   -1.7274 H   0  0  0  0  0
    7.8155    0.3867   -5.8969 H   0  0  0  0  0
    4.0922    1.0470   -1.3092 H   0  0  0  0  0
    9.9439    3.8648    2.2540 H   0  0  0  0  0
   10.3609    2.1426    4.5042 H   0  0  0  0  0
   11.4728    3.1380    4.0263 H   0  0  0  0  0
    8.9467    4.1349    4.7730 H   0  0  0  0  0
   10.0311    3.8689    5.8757 H   0  0  0  0  0
   12.0625    5.3652    5.9694 H   0  0  0  0  0
   12.8831    7.3672    5.5070 H   0  0  0  0  0
   12.0892    8.7192    3.9751 H   0  0  0  0  0
   10.0328    8.1130    2.9847 H   0  0  0  0  0
    9.1009    6.0378    3.3131 H   0  0  0  0  0
   12.7944    4.2467    0.4537 H   0  0  0  0  0
   12.3821    4.2958    1.9657 H   0  0  0  0  0
   11.3137    4.5767    0.8524 H   0  0  0  0  0
   12.2672    0.8575    0.3115 H   0  0  0  0  0
   13.9033    1.4317    1.8668 H   0  0  0  0  0
   14.4209    2.5570    0.9069 H   0  0  0  0  0
   14.5509    1.0521    0.4904 H   0  0  0  0  0
   13.2090    2.3427   -3.6291 H   0  0  0  0  0
   15.1269    0.9766   -3.3613 H   0  0  0  0  0
   14.2690   -0.2987   -3.6744 H   0  0  0  0  0
   13.9072   -0.9680   -5.9067 H   0  0  0  0  0
   14.1000   -0.5939   -8.2855 H   0  0  0  0  0
   15.0661    1.4571   -8.8905 H   0  0  0  0  0
   15.8296    2.9676   -7.3670 H   0  0  0  0  0
   15.4848    2.5771   -5.2403 H   0  0  0  0  0
   11.2287    3.3305   -6.1024 H   0  0  0  0  0
   12.6910    2.8589   -5.8005 H   0  0  0  0  0
   11.8200    3.4926   -4.6610 H   0  0  0  0  0
   10.0297    0.1405   -5.4142 H   0  0  0  0  0
   11.3188    0.2930   -7.3457 H   0  0  0  0  0
   10.6563    1.6716   -7.6850 H   0  0  0  0  0
    9.7917    0.3629   -7.6935 H   0  0  0  0  0
    6.6996    2.8696   -5.6225 H   0  0  0  0  0
    5.9379    2.8485   -7.7735 H   0  0  0  0  0
    5.0500    0.5509   -7.4467 H   0  0  0  0  0
    6.5856    0.3717   -7.7516 H   0  0  0  0  0
    3.7693    3.9887   -4.2912 H   0  0  0  0  0
    4.3673    3.7324   -5.7186 H   0  0  0  0  0
    5.3207    4.0341   -4.5130 H   0  0  0  0  0
    3.8160    0.6279   -3.4087 H   0  0  0  0  0
    2.4823    0.8472   -5.3602 H   0  0  0  0  0
    1.9337    2.2189   -4.8369 H   0  0  0  0  0
    1.5732    0.8918   -4.0842 H   0  0  0  0  0
    3.3260    3.3952   -0.1427 H   0  0  0  0  0
    1.3155    2.0164   -0.1197 H   0  0  0  0  0
    2.0960    0.9438    0.7178 H   0  0  0  0  0
    0.7429    4.1405    0.9559 H   0  0  0  0  0
    0.1603    5.3176    2.8094 H   0  0  0  0  0
    0.5933    4.3783    4.8457 H   0  0  0  0  0
    1.7018    2.3465    5.0313 H   0  0  0  0  0
    2.2610    1.1778    3.1138 H   0  0  0  0  0
    5.3660    4.8842    2.1412 H   0  0  0  0  0
    3.8684    4.4614    1.9381 H   0  0  0  0  0
    4.7855    4.7203    0.6927 H   0  0  0  0  0
    6.3327    1.5606    2.4035 H   0  0  0  0  0
    4.8674    2.3351    4.0584 H   0  0  0  0  0
    5.6622    3.6860    4.1081 H   0  0  0  0  0
    6.3586    2.3510    4.5502 H   0  0  0  0  0
  -12.1754    2.5247    1.0445 O   0  0  0  0  0
  -13.7432   -1.4179    3.1559 O   0  0  0  0  0
  -10.0541   -3.0969    1.0291 O   0  0  0  0  0
   -8.9706   -2.9552    5.3649 O   0  0  0  0  0
   -5.1221   -1.0561    3.9996 O   0  0  0  0  0
   -5.1674    2.4618    7.4806 O   0  0  0  0  0
   -7.1200    4.5111    3.5437 O   0  0  0  0  0
  -11.3850    4.1750    5.3290 O   0  0  0  0  0
  -11.5420    4.2071    3.1110 N   0  0  0  0  0
  -13.5287    1.3665    2.3905 N   0  0  0  0  0
  -12.5697   -1.9154    1.3921 N   0  0  0  0  0
  -10.2845   -3.9026    3.1175 N   0  0  0  0  0
   -7.0471   -2.9769    4.3413 N   0  0  0  0  0
   -5.4152   -0.2719    6.0896 N   0  0  0  0  0
   -5.7418    2.9722    5.3696 N   0  0  0  0  0
   -8.6272    4.8911    5.1415 N   0  0  0  0  0
  -12.8350    3.6343    3.0166 C   0  0  0  0  0
  -13.8875    4.6521    2.4744 C   0  0  0  0  0
  -14.2398    5.7389    3.4786 C   0  0  0  0  0
  -15.2138    5.2871    4.4853 C   0  0  0  0  0
  -16.6008    5.3560    4.3034 C   0  0  0  0  0
  -17.4276    4.9202    5.2472 C   0  0  0  0  0
  -17.0970    4.3970    6.3674 C   0  0  0  0  0
  -15.7030    4.3851    6.6340 C   0  0  0  0  0
  -14.7604    4.7876    5.7188 C   0  0  0  0  0
  -12.8063    2.4474    2.0500 C   0  0  0  0  0
  -14.4596    1.3062    3.5151 C   0  0  0  0  0
  -13.5465    0.2659    1.4387 C   0  0  0  0  0
  -14.8500    0.2254    0.6963 C   0  0  0  0  0
  -13.2992   -1.0803    2.0744 C   0  0  0  0  0
  -12.2782   -3.2745    1.8192 C   0  0  0  0  0
  -12.7745   -4.2664    0.7713 C   0  0  0  0  0
  -12.5064   -5.6869    1.1526 C   0  0  0  0  0
  -11.3885   -6.3380    0.6551 C   0  0  0  0  0
  -11.0197   -7.6541    1.1269 C   0  0  0  0  0
  -11.9179   -8.1736    2.0670 C   0  0  0  0  0
  -13.0459   -7.5420    2.5026 C   0  0  0  0  0
  -13.2595   -6.3595    2.0527 C   0  0  0  0  0
  -10.7961   -3.4408    1.9694 C   0  0  0  0  0
  -11.1580   -4.4006    4.1894 C   0  0  0  0  0
   -8.8585   -4.0551    3.2064 C   0  0  0  0  0
   -8.4500   -5.5104    3.2468 C   0  0  0  0  0
   -8.2726   -3.2833    4.4018 C   0  0  0  0  0
   -6.3177   -2.4631    5.4936 C   0  0  0  0  0
   -5.4192   -3.4816    6.0967 C   0  0  0  0  0
   -4.5397   -3.8821    5.3587 C   0  0  0  0  0
   -5.5826   -1.2100    5.1386 C   0  0  0  0  0
   -5.8963   -0.4425    7.4857 C   0  0  0  0  0
   -4.5807    0.9002    5.7572 C   0  0  0  0  0
   -3.1524    0.6794    6.3162 C   0  0  0  0  0
   -5.1894    2.1500    6.2964 C   0  0  0  0  0
   -6.3038    4.2511    5.7480 C   0  0  0  0  0
   -5.2122    5.3611    5.6692 C   0  0  0  0  0
   -5.6898    6.6785    6.1337 C   0  0  0  0  0
   -5.7139    7.0189    7.4619 C   0  0  0  0  0
   -6.1710    8.1889    7.9778 C   0  0  0  0  0
   -6.5981    9.1021    7.0903 C   0  0  0  0  0
   -6.6057    8.8630    5.7069 C   0  0  0  0  0
   -6.1244    7.6608    5.2362 C   0  0  0  0  0
   -7.4055    4.5708    4.7245 C   0  0  0  0  0
   -8.9542    5.1265    6.5498 C   0  0  0  0  0
   -9.6190    5.2377    4.1109 C   0  0  0  0  0
   -9.8969    6.7069    4.1555 C   0  0  0  0  0
  -10.9255    4.4857    4.2560 C   0  0  0  0  0
  -11.1267    4.3854    2.3789 H   0  0  0  0  0
  -12.2413   -1.6495    0.6444 H   0  0  0  0  0
   -6.6293   -3.0735    3.5961 H   0  0  0  0  0
   -5.7576    2.7305    4.5444 H   0  0  0  0  0
  -13.1142    3.3243    3.9028 H   0  0  0  0  0
  -13.5402    5.0681    1.6698 H   0  0  0  0  0
  -14.6964    4.1720    2.2341 H   0  0  0  0  0
  -13.4287    6.0278    3.9304 H   0  0  0  0  0
  -14.6049    6.5025    3.0052 H   0  0  0  0  0
  -16.9476    5.7121    3.5160 H   0  0  0  0  0
  -18.3372    4.9992    5.0837 H   0  0  0  0  0
  -17.7222    4.0534    6.9621 H   0  0  0  0  0
  -15.4151    4.0906    7.4666 H   0  0  0  0  0
  -13.8507    4.7320    5.9103 H   0  0  0  0  0
  -14.8582    0.4340    3.5549 H   0  0  0  0  0
  -15.1450    1.9675    3.3983 H   0  0  0  0  0
  -13.9844    1.4786    4.3320 H   0  0  0  0  0
  -12.8320    0.4230    0.7851 H   0  0  0  0  0
  -15.0089    1.0769    0.2817 H   0  0  0  0  0
  -15.5607    0.0300    1.3074 H   0  0  0  0  0
  -14.8128   -0.4564    0.0200 H   0  0  0  0  0
  -12.7178   -3.4538    2.6777 H   0  0  0  0  0
  -13.7283   -4.1439    0.6477 H   0  0  0  0  0
  -12.3377   -4.0770   -0.0728 H   0  0  0  0  0
  -10.8675   -5.9203    0.0076 H   0  0  0  0  0
  -10.2607   -8.1071    0.8341 H   0  0  0  0  0
  -11.7333   -9.0102    2.4222 H   0  0  0  0  0
  -13.6304   -7.9497    3.0992 H   0  0  0  0  0
  -14.0104   -5.9171    2.3800 H   0  0  0  0  0
  -10.6203   -4.7066    4.9226 H   0  0  0  0  0
  -11.6896   -5.1265    3.8585 H   0  0  0  0  0
  -11.7311   -3.6919    4.4904 H   0  0  0  0  0
   -8.4733   -3.6657    2.3941 H   0  0  0  0  0
   -8.8147   -5.9665    2.4857 H   0  0  0  0  0
   -8.7839   -5.9140    4.0519 H   0  0  0  0  0
   -7.4916   -5.5747    3.2302 H   0  0  0  0  0
   -6.9827   -2.2256    6.1740 H   0  0  0  0  0
   -5.5218   -3.7896    6.9677 H   0  0  0  0  0
   -3.8907   -3.1788    5.1961 H   0  0  0  0  0
   -4.9142   -4.1575    4.5082 H   0  0  0  0  0
   -5.6774    0.3389    7.9977 H   0  0  0  0  0
   -5.4780   -1.2123    7.8769 H   0  0  0  0  0
   -6.8497   -0.5649    7.4828 H   0  0  0  0  0
   -4.5225    0.9768    4.7817 H   0  0  0  0  0
   -2.7936   -0.1392    5.9669 H   0  0  0  0  0
   -3.1888    0.6295    7.2751 H   0  0  0  0  0
   -2.5897    1.4134    6.0571 H   0  0  0  0  0
   -6.6780    4.2058    6.6523 H   0  0  0  0  0
   -4.4512    5.0955    6.2092 H   0  0  0  0  0
   -4.9115    5.4408    4.7500 H   0  0  0  0  0
   -5.3876    6.3909    8.0633 H   0  0  0  0  0
   -6.1875    8.3481    8.8939 H   0  0  0  0  0
   -6.9014    9.9239    7.4029 H   0  0  0  0  0
   -6.9293    9.5070    5.1189 H   0  0  0  0  0
   -6.0900    7.5031    4.3193 H   0  0  0  0  0
   -9.8823    5.3562    6.6288 H   0  0  0  0  0
   -8.4139    5.8453    6.8887 H   0  0  0  0  0
   -8.7763    4.3289    7.0573 H   0  0  0  0  0
   -9.2361    5.0235    3.2353 H   0  0  0  0  0
   -9.0695    7.1931    4.1017 H   0  0  0  0  0
  -10.3411    6.9232    4.9777 H   0  0  0  0  0
  -10.4598    6.9482    3.4138 H   0  0  0  0  0
    8.5159    0.3535   -1.6451 O   0  0  0  0  0
   -8.8393    0.3820    2.2751 O   0  0  0  0  0
    7.9449   -1.5543   -1.9036 O   0  0  0  0  0
    7.8173   -2.3970   -0.8832 O   0  0  0  0  0
   -7.4093    0.3424    0.8659 O   0  0  0  0  0
   -7.3220    1.2766   -0.0762 O   0  0  0  0  0
    9.5310    4.4026   -2.1376 O   0  0  0  0  0
    8.3306    5.0002   -1.8030 O   0  0  0  0  0
  -11.3098   -0.3681    5.5928 O   0  0  0  0  0
  -10.7559    0.5000    6.5135 O   0  0  0  0  0
    6.1858    5.7394   -1.6048 O   0  0  0  0  0
   -9.4603    1.6859    7.9639 O   0  0  0  0  0
    7.4900   -2.5172    9.3793 O   0  0  0  0  0
  1 27  2  0  0  0
  2 31  2  0  0  0
  3 40  2  0  0  0
  4  5  1  6  0  0
  4 44  1  6  0  0
  5 44  1  0  0  0
  6 54  2  0  0  0
  7 58  2  0  0  0
  8 67  2  0  0  0
  9 71  2  0  0  0
 10 18  1  6  0  0
 10 71  1  1  0  0
 10 72  1  0  0  0
 11 27  1  0  0  0
 11 28  1  0  0  0
 11 29  1  0  0  0
 12 31  1  6  0  0
 12 32  1  1  0  0
 12 73  1  0  0  0
 13 40  1  6  0  0
 13 41  1  0  0  0
 13 42  1  1  0  0
 14 44  2  0  0  0
 14 45  1  1  0  0
 14 74  1  0  0  0
 15 54  2  0  0  0
 15 55  1  1  0  0
 15 56  1  0  0  0
 16 58  1  1  0  0
 16 59  1  6  0  0
 16 75  1  0  0  0
 17 67  1  1  0  0
 17 68  1  0  0  0
 17 69  1  6  0  0
 18 19  1  6  0  0
 18 27  1  0  0  0
 18 76  1  0  0  0
 19 20  1  6  0  0
 19 77  1  0  0  0
 19 78  1  0  0  0
 20 21  1  6  0  0
 20 79  1  0  0  0
 20 80  1  0  0  0
 21 22  1  0  0  0
 21 26  1  6  0  0
 22 23  2  0  0  0
 22 81  1  1  0  0
 23 24  2  0  0  0
 23 82  1  0  0  0
 24 25  1  0  0  0
 24 83  1  6  0  0
 25 26  1  1  0  0
 25 84  1  6  0  0
 26 85  1  0  0  0
 28 86  1  0  0  0
 28 87  1  6  0  0
 28 88  1  1  0  0
 29 30  1  6  0  0
 29 31  1  1  0  0
 29 89  1  0  0  0
 30 90  1  6  0  0
 30 91  1  0  0  0
 30 92  1  0  0  0
 32 33  1  0  0  0
 32 40  1  1  0  0
 32 93  1  0  0  0
 33 34  1  1  0  0
 33 94  1  6  0  0
 33 95  1  0  0  0
 34 35  2  0  0  0
 34 39  1  1  0  0
 35 36  1  1  0  0
 35 96  1  6  0  0
 36 37  1  1  0  0
 36 97  1  0  0  0
 37 38  2  0  0  0
 37 98  1  1  0  0
 38 39  1  6  0  0
 38 99  1  1  0  0
 39100  1  0  0  0
 41101  1  1  0  0
 41102  1  0  0  0
 41103  1  6  0  0
 42 43  1  1  0  0
 42 44  1  1  0  0
 42104  1  0  0  0
 43105  1  6  0  0
 43106  1  0  0  0
 43107  1  1  0  0
 45 46  1  1  0  0
 45 54  1  0  0  0
 45108  1  0  0  0
 46 47  1  1  0  0
 46109  1  0  0  0
 46110  1  1  0  0
 47 48  1  1  0  0
 47111  1  6  0  0
 47112  1  0  0  0
 48 49  1  0  0  0
 48 53  2  0  0  0
 49 50  1  1  0  0
 49113  1  6  0  0
 50 51  3  0  0  0
 50114  1  0  0  0
 51 52  1  0  0  0
 51115  1  1  0  0
 52 53  1  6  0  0
 52116  1  1  0  0
 53117  1  0  0  0
 55118  1  0  0  0
 55119  1  1  0  0
 55120  1  0  0  0
 56 57  1  1  0  0
 56 58  1  6  0  0
 56121  1  6  0  0
 57122  1  1  0  0
 57123  1  1  0  0
 57124  1  0  0  0
 59 60  1  0  0  0
 59 67  1  6  0  0
 59125  1  0  0  0
 60 61  1  1  0  0
 60126  1  0  0  0
 60127  1  6  0  0
 61 62  1  0  0  0
 61 66  2  0  0  0
 62 63  2  0  0  0
 62128  1  6  0  0
 63 64  1  1  0  0
 63129  1  0  0  0
 63130  1  0  0  0
 64 65  2  0  0  0
 64131  1  1  0  0
 65 66  1  6  0  0
 65132  1  1  0  0
 66133  1  0  0  0
 68134  1  6  0  0
 68135  1  0  0  0
 68136  1  1  0  0
 69 70  1  6  0  0
 69 71  1  6  0  0
 69137  1  0  0  0
 70138  1  1  0  0
 70139  1  0  0  0
 70140  1  6  0  0
141167  2  0  0  0
142171  2  0  0  0
143180  2  0  0  0
144145  1  0  0  0
144184  1  1  0  0
145184  1  1  0  0
146194  2  0  0  0
147198  2  0  0  0
148207  2  0  0  0
149211  2  0  0  0
150158  1  6  0  0
150211  1  0  0  0
150212  1  1  0  0
151167  1  1  0  0
151168  1  6  0  0
151169  1  0  0  0
152171  1  0  0  0
152172  1  6  0  0
152213  1  1  0  0
153180  1  1  0  0
153181  1  6  0  0
153182  1  0  0  0
154184  2  0  0  0
154185  1  0  0  0
154214  1  1  0  0
155194  2  0  0  0
155195  1  6  0  0
155196  1  1  0  0
156198  1  6  0  0
156199  1  0  0  0
156215  1  1  0  0
157207  1  0  0  0
157208  1  6  0  0
157209  1  1  0  0
158159  1  1  0  0
158167  1  0  0  0
158216  1  6  0  0
159160  1  6  0  0
159217  1  0  0  0
159218  1  1  0  0
160161  1  0  0  0
160219  1  0  0  0
160220  1  6  0  0
161162  1  1  0  0
161166  2  0  0  0
162163  2  0  0  0
162221  1  1  0  0
163164  2  0  0  0
163222  1  1  0  0
164165  1  6  0  0
164223  1  0  0  0
165166  1  0  0  0
165224  1  6  0  0
166225  1  6  0  0
168226  1  6  0  0
168227  1  0  0  0
168228  1  0  0  0
169170  1  0  0  0
169171  1  6  0  0
169229  1  1  0  0
170230  1  1  0  0
170231  1  6  0  0
170232  1  0  0  0
172173  1  0  0  0
172180  1  0  0  0
172233  1  6  0  0
173174  1  6  0  0
173234  1  0  0  0
173235  1  1  0  0
174175  2  0  0  0
174179  1  0  0  0
175176  1  6  0  0
175236  1  0  0  0
176177  1  0  0  0
176237  1  6  0  0
177178  2  0  0  0
177238  1  6  0  0
178179  1  1  0  0
178239  1  0  0  0
179240  1  1  0  0
181241  1  0  0  0
181242  1  6  0  0
181243  1  0  0  0
182183  1  6  0  0
182184  1  0  0  0
182244  1  1  0  0
183245  1  0  0  0
183246  1  6  0  0
183247  1  0  0  0
185186  1  0  0  0
185194  1  1  0  0
185248  1  6  0  0
186187  1  6  0  0
186249  1  1  0  0
186250  1  0  0  0
187188  1  0  0  0
187251  1  0  0  0
187252  1  6  0  0
188189  1  1  0  0
188193  2  0  0  0
189190  1  0  0  0
189253  1  1  0  0
190191  3  0  0  0
190254  1  1  0  0
191192  1  6  0  0
191255  1  0  0  0
192193  1  0  0  0
192256  1  6  0  0
193257  1  6  0  0
195258  1  0  0  0
195259  1  0  0  0
195260  1  6  0  0
196197  1  0  0  0
196198  1  0  0  0
196261  1  1  0  0
197262  1  0  0  0
197263  1  6  0  0
197264  1  1  0  0
199200  1  1  0  0
199207  1  0  0  0
199265  1  6  0  0
200201  1  0  0  0
200266  1  1  0  0
200267  1  0  0  0
201202  1  6  0  0
201206  2  0  0  0
202203  1  0  0  0
202268  1  0  0  0
203204  1  0  0  0
203269  1  0  0  0
203270  1  6  0  0
204205  1  1  0  0
204271  1  0  0  0
205206  1  0  0  0
205272  1  0  0  0
206273  1  1  0  0
208274  1  0  0  0
208275  1  0  0  0
208276  1  6  0  0
209210  1  1  0  0
209211  1  6  0  0
209277  1  1  0  0
210278  1  1  0  0
210279  1  6  0  0
210280  1  1  0  0
281306  3  0  0  0
282310  2  0  0  0
283319  2  0  0  0
284323  2  0  0  0
285327  2  0  0  0
286331  2  0  0  0
287340  2  0  0  0
288344  2  0  0  0
289297  1  0  0  0
289344  1  0  0  0
289345  1  0  0  0
290306  1  1  0  0
290307  1  0  0  0
290308  1  6  0  0
291310  1  1  0  0
291311  1  6  0  0
291346  1  0  0  0
292319  1  1  0  0
292320  1  0  0  0
292321  1  6  0  0
293323  2  0  0  0
293324  1  0  0  0
293347  1  0  0  0
294327  1  0  0  0
294328  1  0  0  0
294329  1  1  0  0
295331  1  6  0  0
295332  1  1  0  0
295348  1  0  0  0
296340  1  6  0  0
296341  1  0  0  0
296342  1  1  0  0
297298  1  1  0  0
297306  1  6  0  0
297349  1  0  0  0
298299  1  1  0  0
298350  1  0  0  0
298351  1  0  0  0
299300  1  0  0  0
299352  1  0  0  0
299353  1  1  0  0
300301  1  1  0  0
300305  1  6  0  0
301302  2  0  0  0
301354  1  1  0  0
302303  2  0  0  0
302355  1  1  0  0
303304  1  0  0  0
303356  1  0  0  0
304305  1  0  0  0
304357  1  6  0  0
305358  1  6  0  0
307359  1  6  0  0
307360  1  1  0  0
307361  1  0  0  0
308309  1  0  0  0
308310  1  6  0  0
308362  1  0  0  0
309363  1  1  0  0
309364  1  0  0  0
309365  1  6  0  0
311312  1  0  0  0
311319  1  6  0  0
311366  1  0  0  0
312313  1  6  0  0
312367  1  1  0  0
312368  1  0  0  0
313314  1  6  0  0
313318  2  0  0  0
314315  1  6  0  0
314369  1  0  0  0
315316  1  0  0  0
315370  1  6  0  0
316317  1  1  0  0
316371  1  6  0  0
317318  2  0  0  0
317372  1  0  0  0
318373  1  1  0  0
320374  1  6  0  0
320375  1  0  0  0
320376  1  1  0  0
321322  1  6  0  0
321323  1  0  0  0
321377  1  0  0  0
322378  1  0  0  0
322379  1  0  0  0
322380  1  0  0  0
324325  1  6  0  0
324327  1  1  0  0
324381  1  0  0  0
325326  3  0  0  0
325382  1  6  0  0
326383  1  0  0  0
326384  1  0  0  0
328385  1  1  0  0
328386  1  6  0  0
328387  1  0  0  0
329330  1  6  0  0
329331  1  1  0  0
329388  1  0  0  0
330389  1  6  0  0
330390  1  0  0  0
330391  1  1  0  0
332333  1  0  0  0
332340  1  1  0  0
332392  1  0  0  0
333334  1  1  0  0
333393  1  6  0  0
333394  1  0  0  0
334335  1  0  0  0
334339  1  1  0  0
335336  1  1  0  0
335395  1  6  0  0
336337  2  0  0  0
336396  1  0  0  0
337338  1  0  0  0
337397  1  1  0  0
338339  1  6  0  0
338398  1  1  0  0
339399  1  0  0  0
341400  1  1  0  0
341401  1  0  0  0
341402  1  6  0  0
342343  1  1  0  0
342344  1  0  0  0
342403  1  0  0  0
343404  1  0  0  0
343405  1  0  0  0
343406  1  1  0  0
407432  3  0  0  0
408436  2  0  0  0
409445  2  0  0  0
410449  2  0  0  0
411453  2  0  0  0
412457  2  0  0  0
413466  2  0  0  0
414470  2  0  0  0
415423  1  0  0  0
415470  1  1  0  0
415471  1  6  0  0
416432  1  0  0  0
416433  1  1  0  0
416434  1  6  0  0
417436  1  1  0  0
417437  1  0  0  0
417472  1  6  0  0
418445  1  6  0  0
418446  1  1  0  0
418447  1  0  0  0
419449  2  0  0  0
419450  1  1  0  0
419473  1  6  0  0
420453  1  6  0  0
420454  1  1  0  0
420455  1  0  0  0
421457  1  1  0  0
421458  1  0  0  0
421474  1  6  0  0
422466  1  0  0  0
422467  1  1  0  0
422468  1  6  0  0
423424  1  0  0  0
423432  1  6  0  0
423475  1  1  0  0
424425  1  1  0  0
424476  1  6  0  0
424477  1  0  0  0
425426  1  1  0  0
425478  1  1  0  0
425479  1  6  0  0
426427  1  0  0  0
426431  1  1  0  0
427428  2  0  0  0
427480  1  6  0  0
428429  2  0  0  0
428481  1  0  0  0
429430  1  0  0  0
429482  1  1  0  0
430431  1  6  0  0
430483  1  1  0  0
431484  1  0  0  0
433485  1  0  0  0
433486  1  0  0  0
433487  1  1  0  0
434435  1  6  0  0
434436  1  0  0  0
434488  1  6  0  0
435489  1  0  0  0
435490  1  1  0  0
435491  1  6  0  0
437438  1  6  0  0
437445  1  0  0  0
437492  1  1  0  0
438439  1  0  0  0
438493  1  0  0  0
438494  1  6  0  0
439440  1  0  0  0
439444  2  0  0  0
440441  1  0  0  0
440495  1  6  0  0
441442  1  1  0  0
441496  1  0  0  0
442443  1  0  0  0
442497  1  0  0  0
443444  2  0  0  0
443498  1  1  0  0
444499  1  0  0  0
446500  1  1  0  0
446501  1  0  0  0
446502  1  0  0  0
447448  1  0  0  0
447449  1  1  0  0
447503  1  6  0  0
448504  1  6  0  0
448505  1  1  0  0
448506  1  0  0  0
450451  1  0  0  0
450453  1  0  0  0
450507  1  1  0  0
451452  3  0  0  0
451508  1  1  0  0
452509  1  0  0  0
452510  1  6  0  0
454511  1  1  0  0
454512  1  0  0  0
454513  1  0  0  0
455456  1  0  0  0
455457  1  0  0  0
455514  1  6  0  0
456515  1  0  0  0
456516  1  1  0  0
456517  1  0  0  0
458459  1  0  0  0
458466  1  6  0  0
458518  1  1  0  0
459460  1  0  0  0
459519  1  1  0  0
459520  1  6  0  0
460461  1  1  0  0
460465  1  6  0  0
461462  1  0  0  0
461521  1  1  0  0
462463  2  0  0  0
462522  1  1  0  0
463464  1  6  0  0
463523  1  0  0  0
464465  1  0  0  0
464524  1  6  0  0
465525  1  6  0  0
467526  1  0  0  0
467527  1  0  0  0
467528  1  1  0  0
468469  1  0  0  0
468470  1  0  0  0
468529  1  6  0  0
469530  1  0  0  0
469531  1  1  0  0
469532  1  6  0  0
535536  1  1  0  0
537538  1  6  0  0
539540  1  0  0  0
541542  1  1  0  0
M  END
